*Heading
** Job name: span Model name: Model-1
** Generated by: Abaqus/CAE 2022
*Preprint, echo=NO, model=NO, history=NO, contact=NO
**
** PARTS
**
*Part, name=sft
*Node
      1,           0.,           0.,           0.
      2,         6.25,           0.,           0.
      3,         12.5,           0.,           0.
      4,          25.,           0.,           0.
      5,         37.5,           0.,           0.
      6,          50.,           0.,           0.
      7,         62.5,           0.,           0.
      8,          75.,           0.,           0.
      9,         87.5,           0.,           0.
     10,         100.,           0.,           0.
     11,        112.5,           0.,           0.
     12,         125.,           0.,           0.
     13,        137.5,           0.,           0.
     14,         150.,           0.,           0.
     15,        162.5,           0.,           0.
     16,         175.,           0.,           0.
     17,        187.5,           0.,           0.
     18,         200.,           0.,           0.
     19,        212.5,           0.,           0.
     20,         225.,           0.,           0.
** ... 1581 like lines cut
*Element, type=B31
 1,  1, 36
 2, 36, 37
 3, 37, 38
 4, 38, 39
 5, 39, 40
 6, 40, 41
 7, 41, 42
 8, 42, 43
 9, 43, 44
10, 44, 45
11, 45, 46
12, 46, 47
13, 47, 48
14, 48, 49
15, 49, 50
16, 50, 51
17, 51, 52
18, 52, 53
19, 53, 54
20, 54, 55
** ... 1580 like lines cut
*Nset, nset=sft, generate
    1,  1601,     1
*Elset, elset=sft, generate
    1,  1600,     1
** Section: sft  Profile: sftsec
*Beam General Section, elset=sft, poisson = 0.25, density=2500., section=GENERAL
47.53, 928.5, 0., 921.81, 1850.31
0.,1.,0.
 3.2e+10, 1.28e+10
*Centroid
0., -0.51
*Section Points
0., 0.
*End Part
**  
*Part, name=wire1
*Node
      1,          -7.,           0.,           0.
      2,  -64.7350235,        -100.,           0.
*Element, type=T3D2
1, 2, 1
*Nset, nset=wire1
 1, 2
*Elset, elset=wire1
 1,
** Section: wiresec
*Solid Section, elset=wire1, material=wire
0.070685,
*End Part
**  
*Part, name=wire2
*Node
      1,           7.,           0.,           0.
      2,   64.7350235,        -100.,           0.
*Element, type=T3D2
1, 2, 1
*Nset, nset=wire2
 1, 2
*Elset, elset=wire2
 1,
** Section: wiresec
*Solid Section, elset=wire2, material=wire
0.070685,
*End Part
**  
**
** ASSEMBLY
**
*Assembly, name=Assembly
**  
*Instance, name=sft-1, part=sft
*End Instance
**  
*Instance, name=wire1-1, part=wire1
         25.,           0.,           0.
         25.,           0.,           0., 25.5773502691896, 0.577350269189626, 0.577350269189626,         120.
*End Instance
**  
*Instance, name=wire2-1, part=wire2
         25.,           0.,           0.
         25.,           0.,           0., 25.5773502691896, 0.577350269189626, 0.577350269189626,         120.
*End Instance
**  
*Instance, name=wire1-1-lin-2-1, part=wire1
         75.,           0.,           0.
         75.,           0.,           0., 75.5773502691896, 0.577350269189626, 0.577350269189626,         120.
*End Instance
**  
*Instance, name=wire1-1-lin-3-1, part=wire1
        125.,           0.,           0.
        125.,           0.,           0., 125.57735026919, 0.577350269189626, 0.577350269189626,         120.
*End Instance
**  
*Instance, name=wire1-1-lin-4-1, part=wire1
        175.,           0.,           0.
        175.,           0.,           0., 175.57735026919, 0.577350269189626, 0.577350269189626,         120.
*End Instance
**  
*Instance, name=wire1-1-lin-5-1, part=wire1
        225.,           0.,           0.
        225.,           0.,           0., 225.57735026919, 0.577350269189626, 0.577350269189626,         120.
*End Instance
**  
*Instance, name=wire1-1-lin-6-1, part=wire1
        275.,           0.,           0.
        275.,           0.,           0., 275.57735026919, 0.577350269189626, 0.577350269189626,         120.
*End Instance
**  
*Instance, name=wire1-1-lin-7-1, part=wire1
        325.,           0.,           0.
        325.,           0.,           0., 325.57735026919, 0.577350269189626, 0.577350269189626,         120.
*End Instance
**  
*Instance, name=wire1-1-lin-8-1, part=wire1
        375.,           0.,           0.
        375.,           0.,           0., 375.57735026919, 0.577350269189626, 0.577350269189626,         120.
*End Instance
**  
*Instance, name=wire2-1-lin-2-1, part=wire2
         75.,           0.,           0.
         75.,           0.,           0., 75.5773502691896, 0.577350269189626, 0.577350269189626,         120.
*End Instance
**  
*Instance, name=wire2-1-lin-3-1, part=wire2
        125.,           0.,           0.
        125.,           0.,           0., 125.57735026919, 0.577350269189626, 0.577350269189626,         120.
*End Instance
**  
*Instance, name=wire2-1-lin-4-1, part=wire2
        175.,           0.,           0.
        175.,           0.,           0., 175.57735026919, 0.577350269189626, 0.577350269189626,         120.
*End Instance
**  
*Instance, name=wire2-1-lin-5-1, part=wire2
        225.,           0.,           0.
        225.,           0.,           0., 225.57735026919, 0.577350269189626, 0.577350269189626,         120.
*End Instance
**  
*Instance, name=wire2-1-lin-6-1, part=wire2
        275.,           0.,           0.
        275.,           0.,           0., 275.57735026919, 0.577350269189626, 0.577350269189626,         120.
*End Instance
**  
*Instance, name=wire2-1-lin-7-1, part=wire2
        325.,           0.,           0.
        325.,           0.,           0., 325.57735026919, 0.577350269189626, 0.577350269189626,         120.
*End Instance
**  
*Instance, name=wire2-1-lin-8-1, part=wire2
        375.,           0.,           0.
        375.,           0.,           0., 375.57735026919, 0.577350269189626, 0.577350269189626,         120.
*End Instance
**  
*MPC
BEAM, wire2-1-lin-8-1.1, sft-1.32
BEAM, wire1-1-lin-8-1.1, sft-1.32
BEAM, wire2-1-lin-7-1.1, sft-1.28
BEAM, wire1-1-lin-7-1.1, sft-1.28
BEAM, wire2-1-lin-6-1.1, sft-1.24
BEAM, wire1-1-lin-6-1.1, sft-1.24
BEAM, wire2-1-lin-5-1.1, sft-1.20
BEAM, wire1-1-lin-5-1.1, sft-1.20
BEAM, wire2-1-lin-4-1.1, sft-1.16
BEAM, wire1-1-lin-4-1.1, sft-1.16
BEAM, wire2-1-lin-3-1.1, sft-1.12
BEAM, wire1-1-lin-3-1.1, sft-1.12
BEAM, wire2-1-lin-2-1.1, sft-1.8
BEAM, wire1-1-lin-2-1.1, sft-1.8
BEAM, wire2-1.1, sft-1.4
BEAM, wire1-1.1, sft-1.4
*Nset, nset=Set-4, instance=wire1-1
 2,
*Nset, nset=Set-4, instance=wire2-1
 2,
*Nset, nset=Set-4, instance=wire1-1-lin-2-1
 2,
*Nset, nset=Set-4, instance=wire1-1-lin-6-1
 2,
*Nset, nset=Set-4, instance=wire2-1-lin-7-1
 2,
*Nset, nset=Set-4, instance=wire2-1-lin-3-1
 2,
*Nset, nset=Set-4, instance=wire1-1-lin-4-1
 2,
*Nset, nset=Set-4, instance=wire1-1-lin-8-1
 2,
*Nset, nset=Set-4, instance=wire2-1-lin-5-1
 2,
*Nset, nset=Set-4, instance=wire1-1-lin-3-1
 2,
*Nset, nset=Set-4, instance=wire1-1-lin-7-1
 2,
*Nset, nset=Set-4, instance=wire2-1-lin-8-1
 2,
*Nset, nset=Set-4, instance=wire2-1-lin-4-1
 2,
*Nset, nset=Set-4, instance=wire1-1-lin-5-1
 2,
*Nset, nset=Set-4, instance=wire2-1-lin-2-1
 2,
*Nset, nset=Set-4, instance=wire2-1-lin-6-1
 2,
*Nset, nset=Wire-1-Set-1, instance=sft-1, generate
  4,  32,   4
*Nset, nset=Wire-1-Set-1, instance=wire1-1-lin-8-1
 1,
*Nset, nset=Wire-1-Set-1, instance=wire2-1-lin-7-1
 1,
*Nset, nset=Wire-1-Set-1, instance=wire1-1-lin-6-1
 1,
*Nset, nset=Wire-1-Set-1, instance=wire2-1-lin-3-1
 1,
*Nset, nset=Wire-1-Set-1, instance=wire1-1-lin-2-1
 1,
*Nset, nset=Wire-1-Set-1, instance=wire2-1-lin-5-1
 1,
*Nset, nset=Wire-1-Set-1, instance=wire1-1
 1,
*Nset, nset=Wire-1-Set-1, instance=wire1-1-lin-4-1
 1,
*Nset, nset=Wire-1-Set-1, instance=wire2-1-lin-8-1
 1,
*Nset, nset=Wire-1-Set-1, instance=wire1-1-lin-7-1
 1,
*Nset, nset=Wire-1-Set-1, instance=wire2-1-lin-4-1
 1,
*Nset, nset=Wire-1-Set-1, instance=wire1-1-lin-3-1
 1,
*Nset, nset=Wire-1-Set-1, instance=wire2-1-lin-6-1
 1,
*Nset, nset=Wire-1-Set-1, instance=wire2-1-lin-2-1
 1,
*Nset, nset=Wire-1-Set-1, instance=wire2-1
 1,
*Nset, nset=Wire-1-Set-1, instance=wire1-1-lin-5-1
 1,
*Nset, nset=end1, instance=sft-1
 1,
*Nset, nset=end2, instance=sft-1
 35,
*Nset, nset=l1, instance=sft-1
 2,
*Nset, nset=l2, instance=sft-1
 4,
*Nset, nset=l3, instance=sft-1
 6,
*Nset, nset=l4, instance=sft-1
 8,
*Nset, nset=l5, instance=sft-1
 10,
*Nset, nset=l6, instance=sft-1
 12,
*Nset, nset=l7, instance=sft-1
 14,
*Nset, nset=l8, instance=sft-1
 16,
*Nset, nset=l9, instance=sft-1
 18,
*Nset, nset=l10, instance=sft-1
 20,
*Nset, nset=l11, instance=sft-1
 22,
*Nset, nset=l12, instance=sft-1
 24,
*Nset, nset=l13, instance=sft-1
 26,
*Nset, nset=l14, instance=sft-1
 28,
*Nset, nset=l15, instance=sft-1
 30,
*Nset, nset=l16, instance=sft-1
 32,
*Nset, nset=l17, instance=sft-1
 34,
*End Assembly
** 
** MATERIALS
** 
*Material, name=wire
*Density
7850.,
*Elastic
 2.01e+11, 0.3
*No Compression
** 
*AQUA
-100,30,9.8,1028
0,0,0,0
*WAVE,TYPE=AIRY,WAVE PERIOD
2.5,12,0,0,1 
** BOUNDARY CONDITIONS
** 
** Name: end1 Type: /
*Boundary
end1, 1, 1
end1, 2, 2
end1, 3, 3
end1, 4, 4
end1, 5, 5
end1, 6, 6
** Name: end2 Type: /
*Boundary
end2, 1, 1
end2, 5, 5
end2, 6, 6
** Name: joint Type: /
*Boundary
Set-4, 1, 1
Set-4, 2, 2
Set-4, 3, 3
** ----------------------------------------------------------------
** 
** STEP: Step-1
** 
*Step, name=Step-1, nlgeom=YES, inc=1000000
*Dynamic
0.01,150.,1e-05
** 
*Dload
sft-1.sft, PZ, 386275.
**
*Dload
sft-1.sft,FDD,1,14,1,1
sft-1.sft,FI,1,14,2,1 
** OUTPUT REQUESTS
** 
*Restart, write, frequency=0
** 
** FIELD OUTPUT: F-Output-1
** 
*Output, field, number interval=150
*Node Output
A, CF, RF, U, V
*Element Output, directions=YES
LE, NFORC, PE, PEEQ, PEMAG, S, SF
*Contact Output
CDISP, CSTRESS
** 
** HISTORY OUTPUT: H-Output-1
** 
*Output, history, variable=PRESELECT, number interval=150
*End Step
